/*--------------------------------*- C++ -*----------------------------------*\
  =========                 |
  \\      /  F ield         | OpenFOAM: The Open Source CFD Toolbox
   \\    /   O peration     | Website:  https://openfoam.org
    \\  /    A nd           | Version:  6
     \\/     M anipulation  |
\*---------------------------------------------------------------------------*/
FoamFile
{
    version     2.0;
    format      ascii;
    class       polyBoundaryMesh;
    location    "constant/polyMesh";
    object      boundary;
}
// * * * * * * * * * * * * * * * * * * * * * * * * * * * * * * * * * * * * * //

8
(
    fixedWalls
    {
        type            wall;
        inGroups        1(wall);
        nFaces          1400;
        startFace       258600;
    }
    frontAndBack
    {
        type            empty;
        inGroups        1(empty);
        nFaces          260000;
        startFace       260000;
    }
    inlet_1
    {
        type            patch;
        nFaces          20;
        startFace       520000;
    }
    inlet_2
    {
        type            patch;
        nFaces          20;
        startFace       520020;
    }
    inlet_3
    {
        type            patch;
        nFaces          20;
        startFace       520040;
    }
    inlet_4
    {
        type            patch;
        nFaces          20;
        startFace       520060;
    }
    inlet_5
    {
        type            patch;
        nFaces          20;
        startFace       520080;
    }
    outlet
    {
        type            patch;
        nFaces          1300;
        startFace       520100;
    }
)

// ************************************************************************* //
