/*--------------------------------*- C++ -*----------------------------------*\
  =========                 |
  \\      /  F ield         | OpenFOAM: The Open Source CFD Toolbox
   \\    /   O peration     | Website:  https://openfoam.org
    \\  /    A nd           | Version:  6
     \\/     M anipulation  |
\*---------------------------------------------------------------------------*/
FoamFile
{
    version     2.0;
    format      ascii;
    class       dictionary;
    object      blockMeshDict;
}
// * * * * * * * * * * * * * * * * * * * * * * * * * * * * * * * * * * * * * //

convertToMeters 0.001;

vertices
(
    // 1 hole
    (0 0 0) //0
    (5 0 0)
    (5 50 0)
    (0 50 0)
    (0 0 1)
    (5 0 1)
    (5 50 1)
    (0 50 1) // 7

    // 2 hole
    (50 0 0) // 8(50 51 55 54)
    (55 0 0)
    (55 50 0)
    (50 50 0)
    (50 0 1)
    (55 0 1)
    (55 50 1)
    (50 50 1) // 15

    // 3 hole
    (100 0 0) // 16
    (105 0 0)
    (105 50 0)
    (100 50 0)
    (100 0 1)
    (105 0 1)
    (105 50 1)
    (100 50 1) // 23

    // 4 hole
    (150 0 0) // 24
    (155 0 0)
    (155 50 0)
    (150 50 0)
    (150 0 1)
    (155 0 1)
    (155 50 1)
    (150 50 1) // 31

    // 5 hole
    (200 0 0) // 32
    (205 0 0)
    (205 50 0)
    (200 50 0)
    (200 0 1)
    (205 0 1)
    (205 50 1)
    (200 50 1) // 39

    //air before 1 hole
    (-50 0 0) // 40
    (0 0 0)
    (0 50 0)
    (-50 50 0)

    (-50 0 1)
    (0 0 1)
    (0 50 1)
    (-50 50 1) // 47

    //air between hole 1 and 2
    (5 0 0) //48
    (50 0 0) //49
    (50 50 0) //50
    (5 50 0) //51

    (5 0 1) //52
    (50 0 1) //53
    (50 50 1) //54
    (5 50 1) //55

    //air between hole 2 and 3
    (55 0 0) //56
    (100 0 0) //57
    (100 50 0) //58
    (55 50 0) //59

    (55 0 1) //60
    (100 0 1) //61
    (100 50 1) //62
    (55 50 1) //63

    //air between hole 2 and 3
    (105 0 0) //64
    (150 0 0) //65
    (150 50 0) //66
    (105 50 0) //67

    (105 0 1) //68
    (150 0 1) //69
    (150 50 1) //70
    (105 50 1) //71

    //air between hole 4 and 5
    (155 0 0) //72
    (200 0 0) //73
    (200 50 0) //74
    (155 50 0) //75

    (155 0 1) //76
    (200 0 1) //77
    (200 50 1) //78
    (155 50 1) //79

    //air after hole 5
    (205 0 0) //80
    (255 0 0) //81
    (255 50 0) //82
    (205 50 0) //83

    (205 0 1) //84
    (255 0 1) //85
    (255 50 1) //86
    (205 50 1) //87
);

blocks          
(
    hex (0 1 2 3 4 5 6 7)    (20 100 1) simpleGrading (1 1 1)           // hole 1
    hex (8 9 10 11 12 13 14 15)    (20 100 1) simpleGrading (1 1 1)     // hole 2
    hex (16 17 18 19 20 21 22 23)    (20 100 1) simpleGrading (1 1 1)   // hole 3
    hex (24 25 26 27 28 29 30 31)    (20 100 1) simpleGrading (1 1 1)   // hole 4
    hex (32 33 34 35 36 37 38 39)    (20 100 1) simpleGrading (1 1 1)   // hole 5

    hex (40 41 42 43 44 45 46 47)    (200 100 1) simpleGrading (0.2 1 1)   // air before 1 hole
    hex (48 49 50 51 52 53 54 55)    (200 100 1) simpleGrading (1 1 1)   // air between hole 1 and 2
    hex (56 57 58 59 60 61 62 63)    (200 100 1) simpleGrading (1 1 1)   // air between hole 2 and 3
    hex (64 65 66 67 68 69 70 71)    (200 100 1) simpleGrading (1 1 1)   // air between hole 3 and 4
    hex (72 73 74 75 76 77 78 79)    (200 100 1) simpleGrading (1 1 1)   // air between hole 4 and 5
    hex (80 81 82 83 84 85 86 87)    (200 100 1) simpleGrading (5 1 1)   // air after hole 5

);

edges           
(
);

boundary         
(

    fixedWalls
    {
        type    wall;
        faces
    (
        //air 10
        (42 43 47 46)
        (44 47 43 40)

        //air 12
        (50 51 55 54)

        //air 23
        (58 59 63 62)

        //air 34
        (66 67 71 70)

        //air 45
        (74 75 79 78)

        //air 50
        (82 83 87 86)
        (81 82 86 85)

    );
    }

        frontAndBack
    {
        type    empty;
        faces
    (
        // hole 1
        (0 3 2 1)
        (4 5 6 7)

        // air 10
        (44 45 46 47)
        (43 42 41 40)

        //hole 2
        (8 11 10 9)
        (15 12 13 14)

        //air 12
        (52 53 54 55)
        (48 51 50 49)

        //hole 3
        (20 21 22 23)
        (16 19 18 17)

        //air 23
        (60 61 62 63)
        (56 59 58 57)

        //hole 4
        (28 29 30 31)
        (27 26 25 24)

        //air 34
        (68 69 70 71)
        (64 67 66 65)

        //hole 5
        (36 37 38 39)
        (35 34 33 32)

        //air 45
        (76 77 78 79)
        (72 75 74 73)

        //air 50
        (84 85 86 87)
        (80 83 82 81)

    );
    }

    inlet_1
    {
        type patch;
        faces
    (
        (3 7 6 2)
    );
    }

    inlet_2
    {
        type patch;
        faces
    (
        (11 15 14 10)
    );
    }

    inlet_3
    {
        type patch;
        faces
    (
        (18 19 23 22)
    );
    }

    inlet_4
    {
        type patch;
        faces
    (
        (26 27 31 30)
    );
    }

    inlet_5
    {
        type patch;
        faces
    (
        (39 35 34 38)
    );
    }

    outlet
    {
        type patch;
        faces
    (
        //hole 1
        (1 5 4 0)
        //air 10
        (41 45 44 40)
        //hole 2
        (9 13 12 8)
        //air 12
        (53 52 48 49)
        // hole 3
        (21 20 16 17)
        //air 23
        (56 57 61 60)
        //hole 4
        (24 25 29 28)
        //air 34
        (68 64 65 69)
        //hole 5
        (32 33 37 36)
        //air 45
        (72 73 77 76)
        //air 50
        (80 81 85 84)
    );
    }

    mid_layer_1
    {
        type    patch;
        faces
    (
        (45 41 42 46)

    );
    }

    mid_layer_2
    {
        type    patch;
        faces
    (
        (0 4 7 3)

    );
    }

    mid_layer_3
    {
        type    patch;
        faces
    (
        (2 6 5 1)

    );
    }

    mid_layer_4
    {
        type    patch;
        faces
    (
        (51 48 52 55)
    );
    }

    mid_layer_5
    {
        type    patch;
        faces
    (
        (50 54 53 49)

    );
    }

    mid_layer_6
    {
        type    patch;
        faces
    (
        (12 15 11 8)

    );
    }

        mid_layer_7
    {
        type    patch;
        faces
    (
        (9 10 14 13)

    );
    }

    mid_layer_8
    {
        type    patch;
        faces
    (
        (60 63 59 56)
    );
    }

    mid_layer_9
    {
        type    patch;
        faces
    (
        (16 19 23 20)

    );
    }

    mid_layer_10
    {
        type    patch;
        faces
    (
        (61 62 58 57)

    );
    }

    mid_layer_11
    {
        type    patch;
        faces
    (
        (17 18 22 21)

    );
    }

    mid_layer_12
    {
        type    patch;
        faces
    (
        (68 71 67 64)
    );
    }

    mid_layer_13
    {
        type    patch;
        faces
    (
        (65 66 70 69)

    );
    }

    mid_layer_14
    {
        type    patch;
        faces
    (
        (24 28 31 27)

    );
    }

    mid_layer_15
    {
        type    patch;
        faces
    (
        (25 26 30 29)

    );
    }

    mid_layer_16
    {
        type    patch;
        faces
    (
        (75 72 76 79)
    );
    }

    mid_layer_17
    {
        type    patch;
        faces
    (
        (73 74 78 77)

    );
    }

    mid_layer_18
    {
        type    patch;
        faces
    (
        (32 36 39 35)

    );
    }

    mid_layer_19
    {
        type    patch;
        faces
    (
        (33 34 38 37)

    );
    }

    mid_layer_20
    {
        type    patch;
        faces
    (
        (84 87 83 80)
    );
    }
);

mergePatchPairs 
(

    (mid_layer_1  mid_layer_2)

    (mid_layer_3  mid_layer_4)
    (mid_layer_5  mid_layer_6)

    (mid_layer_7  mid_layer_8)
    (mid_layer_9  mid_layer_10)

    (mid_layer_11  mid_layer_12)
    (mid_layer_13  mid_layer_14)

    (mid_layer_15  mid_layer_16)
    (mid_layer_17  mid_layer_18)

    (mid_layer_19  mid_layer_20)

);

// ************************************************************************* //
