/*--------------------------------*- C++ -*----------------------------------*\
  =========                 |
  \\      /  F ield         | OpenFOAM: The Open Source CFD Toolbox
   \\    /   O peration     | Website:  https://openfoam.org
    \\  /    A nd           | Version:  6
     \\/     M anipulation  |
\*---------------------------------------------------------------------------*/
FoamFile
{
    version     2.0;
    format      ascii;
    class       volScalarField;
    location    "0";
    object      epsilon;
}
// * * * * * * * * * * * * * * * * * * * * * * * * * * * * * * * * * * * * * //

dimensions      [0 2 -3 0 0 0 0];

internalField   uniform 14.855;

boundaryField
{
    inlet_1
    {
        type            fixedValue;
        value           uniform 14.855;
    }
    outlet_1
    {
        type            zeroGradient;
    }

    fixedWalls_1
    {
        type            epsilonWallFunction;
        value           uniform 14.855;
    }
    frontAndBack_1
    {
        type            empty;
    }

    inlet_2
    {
        type            fixedValue;
        value           uniform 14.855;
    }
    outlet_2
    {
        type            zeroGradient;
    }

    fixedWalls_2
    {
        type            epsilonWallFunction;
        value           uniform 14.855;
    }
    frontAndBack_2
    {
        type            empty;
    }

    inlet_3
    {
        type            fixedValue;
        value           uniform 14.855;
    }
    outlet_3
    {
        type            zeroGradient;
    }

    fixedWalls_3
    {
        type            epsilonWallFunction;
        value           uniform 14.855;
    }
    frontAndBack_3
    {
        type            empty;
    }

    inlet_4
    {
        type            fixedValue;
        value           uniform 14.855;
    }
    outlet_4
    {
        type            zeroGradient;
    }

    fixedWalls_4
    {
        type            epsilonWallFunction;
        value           uniform 14.855;
    }
    frontAndBack_4
    {
        type            empty;
    }

    inlet_5
    {
        type            fixedValue;
        value           uniform 14.855;
    }
    outlet_5
    {
        type            zeroGradient;
    }

    fixedWalls_5
    {
        type            epsilonWallFunction;
        value           uniform 14.855;
    }
    frontAndBack_5
    {
        type            empty;
    }
}


// ************************************************************************* //
