/*--------------------------------*- C++ -*----------------------------------*\
  =========                 |
  \\      /  F ield         | OpenFOAM: The Open Source CFD Toolbox
   \\    /   O peration     | Website:  https://openfoam.org
    \\  /    A nd           | Version:  6
     \\/     M anipulation  |
\*---------------------------------------------------------------------------*/
FoamFile
{
    version     2.0;
    format      ascii;
    class       volScalarField;
    location    "0";
    object      epsilon;
}
// * * * * * * * * * * * * * * * * * * * * * * * * * * * * * * * * * * * * * //

dimensions      [0 2 -3 0 0 0 0];

internalField   uniform 51.87;

boundaryField
{
    inlet_1
    {
        type            fixedValue;
        value           uniform 10.52;
    }
    outlet
    {
        type            zeroGradient;
    }

    fixedWalls
    {
        type            epsilonWallFunction;
        value           uniform 51.87;
    }
    frontAndBack
    {
        type            empty;
    }

    inlet_2
    {
        type            fixedValue;
        value           uniform 4.51;
    }

    inlet_3
    {
        type            fixedValue;
        value           uniform 0.01;
    }

    inlet_4
    {
        type            fixedValue;
        value           uniform 4.71;
    }

    inlet_5
    {
        type            fixedValue;
        value           uniform 10.59;
    }

    inlet_6
    {
        type            fixedValue;
        value           uniform 10.59;
    }

    inlet_7
    {
        type            fixedValue;
        value           uniform 4.51;
    }

    inlet_8
    {
        type            fixedValue;
        value           uniform 0.01;
    }

    inlet_9
    {
        type            fixedValue;
        value           uniform 4.71;
    }

    inlet_10
    {
        type            fixedValue;
        value           uniform 10.59;
    }

    inlet_11
    {
        type            fixedValue;
        value           uniform 10.59;
    }
}


// ************************************************************************* //
