/*--------------------------------*- C++ -*----------------------------------*\
  =========                 |
  \\      /  F ield         | OpenFOAM: The Open Source CFD Toolbox
   \\    /   O peration     | Website:  https://openfoam.org
    \\  /    A nd           | Version:  6
     \\/     M anipulation  |
\*---------------------------------------------------------------------------*/
FoamFile
{
    version     2.0;
    format      ascii;
    class       volScalarField;
    location    "0";
    object      nut;
}
// * * * * * * * * * * * * * * * * * * * * * * * * * * * * * * * * * * * * * //

dimensions      [0 2 -1 0 0 0 0];

internalField   uniform 0;

boundaryField
{
    inlet_1
    {
        type            calculated;
        value           uniform 0;
    }
    outlet
    {
        type            calculated;
        value           uniform 0;
    }
    fixedWalls
    {
        type            nutkWallFunction;
        value           uniform 0;
    }

    frontAndBack
    {
        type            empty;
    }

    inlet_2
    {
        type            calculated;
        value           uniform 0;
    }

    inlet_3
    {
        type            calculated;
        value           uniform 0;
    }

    inlet_4
    {
        type            calculated;
        value           uniform 0;
    }

    inlet_5
    {
        type            calculated;
        value           uniform 0;
    }

    inlet_6
    {
        type            calculated;
        value           uniform 0;
    }

    inlet_7
    {
        type            calculated;
        value           uniform 0;
    }

    inlet_8
    {
        type            calculated;
        value           uniform 0;
    }

    inlet_9
    {
        type            calculated;
        value           uniform 0;
    }

    inlet_10
    {
        type            calculated;
        value           uniform 0;
    }

    inlet_11
    {
        type            calculated;
        value           uniform 0;
    }
}


// ************************************************************************* //
