/*--------------------------------*- C++ -*----------------------------------*\
  =========                 |
  \\      /  F ield         | OpenFOAM: The Open Source CFD Toolbox
   \\    /   O peration     | Website:  https://openfoam.org
    \\  /    A nd           | Version:  6
     \\/     M anipulation  |
\*---------------------------------------------------------------------------*/
FoamFile
{
    version     2.0;
    format      ascii;
    class       volScalarField;
    object      p;
}
// * * * * * * * * * * * * * * * * * * * * * * * * * * * * * * * * * * * * * //

dimensions      [0 2 -2 0 0 0 0];

internalField   uniform 0;

boundaryField
{
    inlet_1
        {
            type            zeroGradient;
        }

    outlet
        {
            type            fixedValue;
            value           uniform 0;
        }

    fixedWalls
        {
            type zeroGradient;
        }

    frontAndBack
        {
            type empty;
        }

    inlet_2
        {
            type            zeroGradient;
        }

    inlet_3
        {
            type            zeroGradient;
        }

    inlet_4
        {
            type            zeroGradient;
        }

    inlet_5
        {
            type            zeroGradient;
        }

}



// ************************************************************************* //
