/*--------------------------------*- C++ -*----------------------------------*\
  =========                 |
  \\      /  F ield         | OpenFOAM: The Open Source CFD Toolbox
   \\    /   O peration     | Website:  https://openfoam.org
    \\  /    A nd           | Version:  6
     \\/     M anipulation  |
\*---------------------------------------------------------------------------*/
FoamFile
{
    version     2.0;
    format      ascii;
    class       volVectorField;
    object      U;
}
// * * * * * * * * * * * * * * * * * * * * * * * * * * * * * * * * * * * * * //

dimensions      [0 1 -1 0 0 0 0];

internalField   uniform (0 0 0);

boundaryField
{
    inlet_1
    {
        type            zeroGradient;
        //type            fixedValue;
        //value           uniform (0 -5 0);
    }

    outlet
    {
        type            zeroGradient;
    }

    fixedWalls
    {
        type            noSlip;
    }

    frontAndBack
    {
        type            empty;
    }

    inlet_2
    {
        type            zeroGradient;
        //type            fixedValue;
        //value           uniform (0 -10 0);
    }

    inlet_3
    {
        type            zeroGradient;
        //type            fixedValue;
        //value           uniform (0 -15 0);
    }

    inlet_4
    {
        type            zeroGradient;
        //type            fixedValue;
        //value           uniform (0 -10 0);
    }

    inlet_5
    {
        type            zeroGradient;
        //type            fixedValue;
        //value           uniform (0 -5 0);
    }

    inlet_6
    {
        type            zeroGradient;
        //type            fixedValue;
        //value           uniform (0 -10 0);
    }

    inlet_7
    {
        type            zeroGradient;
        //type            fixedValue;
        //value           uniform (0 -15 0);
    }

    inlet_8
    {
        type            zeroGradient;
        //type            fixedValue;
        //value           uniform (0 -10 0);
    }

    inlet_9
    {
        type            zeroGradient;
        //type            fixedValue;
        //value           uniform (0 -5 0);
    }

    inlet_10
    {
        type            zeroGradient;
        //type            fixedValue;
        //value           uniform (0 -10 0);
    }

    inlet_11
    {
        type            zeroGradient;
        //type            fixedValue;
        //value           uniform (0 -5 0);
    }
}

// ************************************************************************* //
